@<TRIPOS>MOLECULE
*****
   84   114     1     0     0
SMALL
No Charge or Current Charge


@<TRIPOS>ATOM
      1 C           -1.3280    -4.7910    -0.9640 ca         1 UNL       0.090200
      2 C1          -2.4550    -2.6250    -0.8760 ca         1 UNL       0.094600
      3 C2          -3.7730    -4.7120    -1.0100 ca         1 UNL      -0.032100
      4 C3          -5.9040     0.9250    -1.1230 ca         1 UNL      -0.032100
      5 C4          -4.7890    -1.2200    -0.9870 ca         1 UNL       0.090200
      6 C5          -3.5080     0.8300    -0.8580 ca         1 UNL       0.094600
      7 C6          -4.6770     1.5960    -0.9870 ca         1 UNL       0.090200
      8 C7          -3.5630    -0.5480    -0.8570 ca         1 UNL       0.094600
      9 C8          -5.9590    -0.4530    -1.1230 ca         1 UNL      -0.032100
     10 C9          -2.6350    -5.4300    -1.0120 ca         1 UNL      -0.032100
     11 C10         -3.7570    -3.2580    -0.9590 ca         1 UNL       0.090200
     12 C11         -1.3170    -3.3440    -0.8780 ca         1 UNL       0.094600
     13 N           -4.8780    -2.6020    -1.0020 nc         1 UNL      -0.243600
     14 N1          -2.3430    -1.2330    -0.7570 na         1 UNL      -0.322500
     15 N2          -2.2380     1.4150    -0.7570 na         1 UNL      -0.322500
     16 N3          -0.1070    -2.6440    -0.7600 na         1 UNL      -0.322500
     17 N4          -4.6560     2.9810    -1.0030 nc         1 UNL      -0.243600
     18 N5          -0.2550    -5.5210    -1.0130 nc         1 UNL      -0.243600
     19 C12         -1.0470     3.4380    -0.8780 ca         1 UNL       0.094600
     20 C13         -2.1950     5.6220    -1.0120 ca         1 UNL      -0.032100
     21 C14         -3.4860     3.5460    -0.9590 ca         1 UNL       0.090200
     22 C15         -2.2390     2.8120    -0.8760 ca         1 UNL       0.094600
     23 C16         -3.3860     4.9970    -1.0090 ca         1 UNL      -0.032100
     24 C17         -0.9440     4.8810    -0.9640 ca         1 UNL       0.090200
     25 N6           0.1850     5.5240    -1.0120 nc         1 UNL      -0.243600
     26 N7           0.1030     2.6450    -0.7610 na         1 UNL      -0.322500
     27 C18          1.0350    -3.4520    -0.8640 ca         1 UNL       0.094600
     28 C19          2.1500    -5.5730    -1.1370 ca         1 UNL      -0.032100
     29 C20          3.4500    -3.5360    -0.9920 ca         1 UNL       0.090200
     30 C21          2.2560    -2.8110    -0.8620 ca         1 UNL       0.094600
     31 C22          3.3710    -4.9320    -1.1340 ca         1 UNL      -0.032100
     32 C23          0.9550    -4.8460    -0.9970 ca         1 UNL       0.090200
     33 N8           4.6920    -2.9230    -1.0030 nc         1 UNL      -0.243600
     34 N9           2.2390    -1.4120    -0.7590 na         1 UNL      -0.322500
     35 C24          5.9680    -0.9110    -0.9970 ca         1 UNL      -0.032100
     36 C25          4.8140     1.2460    -0.9560 ca         1 UNL       0.090200
     37 C26          3.5010    -0.8130    -0.8760 ca         1 UNL       0.094600
     38 C27          1.3370     4.7550    -0.9970 ca         1 UNL       0.090200
     39 C28          2.4720     2.6220    -0.8630 ca         1 UNL       0.094600
     40 C29          3.7520     4.6490    -1.1360 ca         1 UNL      -0.032100
     41 C30          2.5860     5.3850    -1.1370 ca         1 UNL      -0.032100
     42 C31          3.7200     3.2510    -0.9940 ca         1 UNL       0.090200
     43 C32          1.3060     3.3590    -0.8630 ca         1 UNL       0.094600
     44 C33          4.7000    -1.6240    -0.9550 ca         1 UNL       0.090200
     45 C34          3.5550     0.5320    -0.8760 ca         1 UNL       0.094600
     46 C35          6.0210     0.4340    -0.9970 ca         1 UNL      -0.032100
     47 N10          2.3440     1.2300    -0.7590 na         1 UNL      -0.322500
     48 N11          4.9100     2.5410    -1.0040 nc         1 UNL      -0.243600
     49 H           -4.3230     5.5400    -1.0650 ha         1 UNL       0.064000
     50 H1          -2.1110     6.7020    -1.0700 ha         1 UNL       0.064000
     51 H2          -6.7980     1.5280    -1.2300 ha         1 UNL       0.064000
     52 H3          -6.8980    -0.9830    -1.2300 ha         1 UNL       0.064000
     53 H4          -4.7490    -5.1790    -1.0650 ha         1 UNL       0.064000
     54 H5          -2.6360    -6.5130    -1.0710 ha         1 UNL       0.064000
     55 H6           2.0740    -6.6480    -1.2500 ha         1 UNL       0.064000
     56 H7           4.3000    -5.4790    -1.2440 ha         1 UNL       0.064000
     57 H8           6.8610    -1.5220    -1.0470 ha         1 UNL       0.064000
     58 H9           6.9600     0.9730    -1.0470 ha         1 UNL       0.064000
     59 H10          4.7210     5.1200    -1.2450 ha         1 UNL       0.064000
     60 H11          2.5950     6.4630    -1.2500 ha         1 UNL       0.064000
     61 C36          1.3810    -0.8710     0.3090 c3         1 UNL       0.106100
     62 C37          1.4460     0.7590     0.3090 c3         1 UNL       0.106100
     63 C38          0.0630     1.6330     0.3090 c3         1 UNL       0.106100
     64 C39         -1.3800     0.8730     0.3100 c3         1 UNL       0.106100
     65 C40         -1.4450    -0.7610     0.3100 c3         1 UNL       0.106100
     66 C41         -0.0650    -1.6330     0.3090 c3         1 UNL       0.106100
     67 C42          0.6150    -1.2810     3.7350 ca         1 UNL       0.000100
     68 C43          1.4180    -0.1100     3.7350 ca         1 UNL       0.000100
     69 C44          0.8050     1.1710     3.7340 ca         1 UNL       0.000100
     70 C45         -0.6120     1.2810     3.7360 ca         1 UNL       0.000100
     71 C46         -1.4150     0.1100     3.7360 ca         1 UNL       0.000100
     72 C47         -0.8020    -1.1710     3.7360 ca         1 UNL       0.000100
     73 C48          1.9920     1.0370     1.7330 cd         1 UNL       0.022700
     74 C49          2.2660    -0.1550     2.4910 cd         1 UNL       0.003700
     75 C50          1.2670     1.8830     2.4910 cc         1 UNL       0.003700
     76 C51          0.0980     2.2450     1.7340 cc         1 UNL       0.022700
     77 C52          1.8940    -1.2050     1.7330 cc         1 UNL       0.022700
     78 C53          0.9990    -2.0380     2.4910 cc         1 UNL       0.003700
     79 C54         -1.2650    -1.8840     2.4940 cd         1 UNL       0.003700
     80 C55         -0.0970    -2.2440     1.7340 cd         1 UNL       0.022700
     81 C56         -1.9900    -1.0380     1.7350 cc         1 UNL       0.022700
     82 C57         -2.2630     0.1550     2.4920 cc         1 UNL       0.003700
     83 C58         -0.9970     2.0390     2.4930 cd         1 UNL       0.003700
     84 C59         -1.8920     1.2060     1.7350 cd         1 UNL       0.022700
@<TRIPOS>BOND
     1    55    28 1   
     2    60    41 1   
     3    59    40 1   
     4    56    31 1   
     5    51     4 1   
     6    52     9 1   
     7    28    31 ar  
     8    28    32 ar  
     9    41    40 ar  
    10    41    38 ar  
    11    40    42 ar  
    12    31    29 ar  
    13     4     9 ar  
    14     4     7 ar  
    15     9     5 ar  
    16    54    10 1   
    17    50    20 1   
    18    53     3 1   
    19    49    23 1   
    20    58    46 1   
    21    57    35 1   
    22    18    32 1   
    23    18     1 2   
    24    10     3 ar  
    25    10     1 ar  
    26    25    38 1   
    27    25    24 2   
    28    20    23 ar  
    29    20    24 ar  
    30     3    11 ar  
    31    23    21 ar  
    32    48    42 1   
    33    48    36 2   
    34    17     7 1   
    35    17    21 2   
    36    33    29 1   
    37    33    44 2   
    38    13     5 1   
    39    13    11 2   
    40    32    27 ar  
    41    46    35 ar  
    42    46    36 ar  
    43    35    44 ar  
    44    38    43 ar  
    45    42    39 ar  
    46    29    30 ar  
    47     7     6 ar  
    48     5     8 ar  
    49     1    12 ar  
    50    24    19 ar  
    51    11     2 ar  
    52    21    22 ar  
    53    36    45 ar  
    54    44    37 ar  
    55    19    22 ar  
    56    19    26 1   
    57    12     2 ar  
    58    12    16 1   
    59     2    14 1   
    60    37    45 ar  
    61    37    34 1   
    62    22    15 1   
    63    45    47 1   
    64    27    30 ar  
    65    27    16 1   
    66    43    39 ar  
    67    43    26 1   
    68    39    47 1   
    69    30    34 1   
    70     6     8 ar  
    71     6    15 1   
    72     8    14 1   
    73    26    63 1   
    74    16    66 1   
    75    47    62 1   
    76    34    61 1   
    77    15    64 1   
    78    14    65 1   
    79    61    62 1   
    80    61    66 1   
    81    61    77 1   
    82    63    62 1   
    83    63    64 1   
    84    63    76 1   
    85    62    73 1   
    86    66    65 1   
    87    66    80 1   
    88    64    65 1   
    89    64    84 1   
    90    65    81 1   
    91    77    78 1   
    92    77    74 2   
    93    73    75 2   
    94    73    74 1   
    95    76    75 1   
    96    76    83 2   
    97    80    78 2   
    98    80    79 1   
    99    84    82 2   
   100    84    83 1   
   101    81    82 1   
   102    81    79 2   
   103    78    67 1   
   104    75    69 1   
   105    74    68 1   
   106    82    71 1   
   107    83    70 1   
   108    79    72 1   
   109    69    68 ar  
   110    69    70 ar  
   111    67    68 ar  
   112    67    72 ar  
   113    71    72 ar  
   114    71    70 ar  
@<TRIPOS>SUBSTRUCTURE
     1 UNL         1 TEMP              0 ****  ****    0 ROOT