@<TRIPOS>MOLECULE
*****
   85   116     1     0     0
SMALL
No Charge or Current Charge


@<TRIPOS>ATOM
      1 C           -0.8210     4.8250    -1.5100 ca         1 UNL       0.000000
      2 C1           1.1760     3.4860    -1.0340 ca         1 UNL       0.000000
      3 C2           1.3580     5.9100    -1.3350 ca         1 UNL       0.000000
      4 C3           5.9420     2.0880    -0.5930 ca         1 UNL       0.000000
      5 C4           3.8940     3.4050    -0.7840 ca         1 UNL       0.000000
      6 C5           3.7530     0.9820    -0.6120 ca         1 UNL       0.000000
      7 C6           5.1860     0.8650    -0.5710 ca         1 UNL       0.000000
      8 C7           3.1350     2.1970    -0.7240 ca         1 UNL       0.000000
      9 C8           5.3230     3.2980    -0.6970 ca         1 UNL       0.000000
     10 C9           0.0120     5.9970    -1.5350 ca         1 UNL       0.000000
     11 C10          2.0000     4.6520    -1.0880 ca         1 UNL       0.000000
     12 C11         -0.1770     3.5700    -1.2270 ca         1 UNL       0.000000
     13 N            3.3370     4.6170    -0.9460 nc         1 UNL       0.000000
     14 N1           1.7270     2.2080    -0.8050 na         1 UNL       0.000000
     15 N2           2.9430    -0.1610    -0.5520 na         1 UNL       0.000000
     16 N3          -0.9260     2.3860    -1.1490 na         1 UNL       0.000000
     17 N4           5.8230    -0.3010    -0.5460 nc         1 UNL       0.000000
     18 N5          -2.1200     4.9390    -1.7690 nc         1 UNL       0.000000
     19 C12          2.8720    -2.5380    -0.7370 ca         1 UNL       0.000000
     20 C13          4.9180    -3.8470    -0.8460 ca         1 UNL       0.000000
     21 C14          5.0450    -1.4270    -0.6200 ca         1 UNL       0.000000
     22 C15          3.6270    -1.3780    -0.6140 ca         1 UNL       0.000000
     23 C16          5.6660    -2.6960    -0.7290 ca         1 UNL       0.000000
     24 C17          3.5020    -3.8020    -0.8620 ca         1 UNL       0.000000
     25 N6           2.7950    -4.9680    -1.0100 nc         1 UNL       0.000000
     26 N7           1.4800    -2.4080    -0.7850 na         1 UNL       0.000000
     27 C18         -2.2730     2.5130    -1.4990 ca         1 UNL       0.000000
     28 C19         -4.2050     3.8170    -2.1960 ca         1 UNL       0.000000
     29 C20         -4.3890     1.3990    -1.9940 ca         1 UNL       0.000000
     30 C21         -3.0300     1.3510    -1.5920 ca         1 UNL       0.000000
     31 C22         -4.9540     2.6650    -2.2850 ca         1 UNL       0.000000
     32 C23         -2.8420     3.7760    -1.8100 ca         1 UNL       0.000000
     33 N8          -5.1600     0.2720    -2.1270 nc         1 UNL       0.000000
     34 N9          -2.3900     0.1370    -1.3300 na         1 UNL       0.000000
     35 C24         -5.2690    -2.1180    -2.1640 ca         1 UNL       0.000000
     36 C25         -3.2530    -3.4350    -1.7530 ca         1 UNL       0.000000
     37 C26         -3.1580    -1.0070    -1.5910 ca         1 UNL       0.000000
     38 C27          1.4760    -4.8540    -1.1200 ca         1 UNL       0.000000
     39 C28         -0.5730    -3.5140    -1.2320 ca         1 UNL       0.000000
     40 C29         -0.6690    -5.9430    -1.5310 ca         1 UNL       0.000000
     41 C30          0.6800    -6.0290    -1.3510 ca         1 UNL       0.000000
     42 C31         -1.3520    -4.6820    -1.4940 ca         1 UNL       0.000000
     43 C32          0.7820    -3.5960    -1.0460 ca         1 UNL       0.000000
     44 C33         -4.5450    -0.8920    -1.9540 ca         1 UNL       0.000000
     45 C34         -2.5380    -2.2250    -1.5040 ca         1 UNL       0.000000
     46 C35         -4.6490    -3.3290    -2.0700 ca         1 UNL       0.000000
     47 N10         -1.1650    -2.2350    -1.1860 na         1 UNL       0.000000
     48 N11         -2.6760    -4.6480    -1.7300 nc         1 UNL       0.000000
     49 H            6.7500    -2.7190    -0.7280 ha         1 UNL       0.000000
     50 H1           5.3840    -4.8210    -0.9410 ha         1 UNL       0.000000
     51 H2           7.0220     1.9960    -0.5540 ha         1 UNL       0.000000
     52 H3           5.8830     4.2260    -0.7400 ha         1 UNL       0.000000
     53 H4           1.9990     6.7840    -1.3720 ha         1 UNL       0.000000
     54 H5          -0.4800     6.9400    -1.7440 ha         1 UNL       0.000000
     55 H6          -4.6250     4.7890    -2.4280 ha         1 UNL       0.000000
     56 H7          -5.9950     2.6850    -2.5910 ha         1 UNL       0.000000
     57 H8          -6.3170    -2.0280    -2.4290 ha         1 UNL       0.000000
     58 H9          -5.1790    -4.2580    -2.2510 ha         1 UNL       0.000000
     59 H10         -1.2760    -6.8200    -1.7270 ha         1 UNL       0.000000
     60 H11          1.2090    -6.9740    -1.4000 ha         1 UNL       0.000000
     61 C36         -1.5020     0.0860    -0.1330 c3         1 UNL       0.000000
     62 C37         -0.7700    -1.3840    -0.0320 c3         1 UNL       0.000000
     63 C38          0.8650    -1.4840     0.2100 c3         1 UNL       0.000000
     64 C39          1.7590    -0.0970     0.3450 c3         1 UNL       0.000000
     65 C40          1.0260     1.3840     0.2140 c3         1 UNL       0.000000
     66 C41         -0.6100     1.4650    -0.0200 c3         1 UNL       0.000000
     67 C42         -1.6850     0.9000     3.3950 cx         1 UNL       0.000000
     68 C43         -1.7780    -0.7310     3.3900 cx         1 UNL       0.000000
     69 C44         -0.5010    -1.4440     3.4750 cd         1 UNL       0.000000
     70 C45          0.7290    -0.7790     3.6540 cc         1 UNL       0.000000
     71 C46          0.8090     0.6660     3.6580 cd         1 UNL       0.000000
     72 C47         -0.3360     1.4650     3.4850 cc         1 UNL       0.000000
     73 C48         -1.3240    -1.9000     1.3220 cf         1 UNL       0.000000
     74 C49         -2.2200    -1.0330     1.9630 ce         1 UNL       0.000000
     75 C50         -0.3340    -2.2590     2.2290 cd         1 UNL       0.000000
     76 C51          0.9340    -2.0530     1.6540 cc         1 UNL       0.000000
     77 C52         -2.3240     0.1250     1.1890 ce         1 UNL       0.000000
     78 C53         -2.0900     1.2600     1.9700 cf         1 UNL       0.000000
     79 C54         -0.0760     2.2650     2.2440 cc         1 UNL       0.000000
     80 C55         -1.1020     2.0270     1.3370 cf         1 UNL       0.000000
     81 C56          1.1630     1.9360     1.6670 cc         1 UNL       0.000000
     82 C57          1.7650     1.0300     2.5430 cd         1 UNL       0.000000
     83 C58          1.6370    -1.2340     2.5350 cc         1 UNL       0.000000
     84 C59          2.1490    -0.1230     1.8510 cd         1 UNL       0.000000
     85 NI          -2.7520     0.1390     4.6200 n2         1 UNL       0.000000
@<TRIPOS>BOND
     1    56    31 1   
     2    57    35 1   
     3    55    28 1   
     4    31    28 ar  
     5    31    29 ar  
     6    58    46 1   
     7    28    32 ar  
     8    35    46 ar  
     9    35    44 ar  
    10    33    29 1   
    11    33    44 2   
    12    46    36 ar  
    13    29    30 ar  
    14    44    37 ar  
    15    32    18 1   
    16    32    27 ar  
    17    18     1 2   
    18    36    48 2   
    19    36    45 ar  
    20    54    10 1   
    21    48    42 1   
    22    59    40 1   
    23    30    27 ar  
    24    30    34 1   
    25    37    45 ar  
    26    37    34 1   
    27    10     1 ar  
    28    10     3 ar  
    29    40    42 ar  
    30    40    41 ar  
    31     1    12 ar  
    32    45    47 1   
    33    27    16 1   
    34    42    39 ar  
    35    60    41 1   
    36    53     3 1   
    37    41    38 ar  
    38     3    11 ar  
    39    34    61 1   
    40    39    47 1   
    41    39    43 ar  
    42    12    16 1   
    43    12     2 ar  
    44    47    62 1   
    45    16    66 1   
    46    38    43 ar  
    47    38    25 1   
    48    11     2 ar  
    49    11    13 2   
    50    43    26 1   
    51     2    14 1   
    52    25    24 2   
    53    13     5 1   
    54    50    20 1   
    55    24    20 ar  
    56    24    19 ar  
    57    20    23 ar  
    58    14     8 1   
    59    14    65 1   
    60    26    19 1   
    61    26    63 1   
    62     5     8 ar  
    63     5     9 ar  
    64    52     9 1   
    65    19    22 ar  
    66    23    49 1   
    67    23    21 ar  
    68     8     6 ar  
    69     9     4 ar  
    70    21    22 ar  
    71    21    17 2   
    72    22    15 1   
    73     6     7 ar  
    74     6    15 1   
    75     4     7 ar  
    76     4    51 1   
    77     7    17 1   
    78    15    64 1   
    79    61    62 1   
    80    61    66 1   
    81    61    77 1   
    82    62    63 1   
    83    62    73 1   
    84    66    65 1   
    85    66    80 1   
    86    63    64 1   
    87    63    76 1   
    88    65    64 1   
    89    65    81 1   
    90    64    84 1   
    91    77    74 1   
    92    77    78 2   
    93    73    74 2   
    94    73    75 1   
    95    80    78 1   
    96    80    79 2   
    97    76    75 2   
    98    76    83 1   
    99    81    79 1   
   100    81    82 2   
   101    84    83 2   
   102    84    82 1   
   103    74    68 1   
   104    78    67 1   
   105    75    69 1   
   106    79    72 1   
   107    83    70 1   
   108    82    71 1   
   109    68    67 1   
   110    68    69 1   
   111    68    85 1   
   112    67    72 1   
   113    67    85 1   
   114    69    70 2   
   115    72    71 2   
   116    70    71 1   
@<TRIPOS>SUBSTRUCTURE
     1 UNL         1 TEMP              0 ****  ****    0 ROOT