@<TRIPOS>MOLECULE
*****
   87   118     1     0     0
SMALL
No Charge or Current Charge


@<TRIPOS>ATOM
      1 C           -0.9880     4.7690    -1.5460 ca         1 UNL       0.000000
      2 C1           1.0590     3.5450    -1.0320 ca         1 UNL       0.000000
      3 C2           1.1220     5.9710    -1.3170 ca         1 UNL       0.000000
      4 C3           5.8630     2.3670    -0.4620 ca         1 UNL       0.000000
      5 C4           3.7710     3.5970    -0.7100 ca         1 UNL       0.000000
      6 C5           3.7370     1.1640    -0.5450 ca         1 UNL       0.000000
      7 C6           5.1630     1.1190    -0.4490 ca         1 UNL       0.000000
      8 C7           3.0690     2.3520    -0.6720 ca         1 UNL       0.000000
      9 C8           5.1950     3.5540    -0.5870 ca         1 UNL       0.000000
     10 C9          -0.2260     5.9790    -1.5500 ca         1 UNL       0.000000
     11 C10          1.8240     4.7520    -1.0590 ca         1 UNL       0.000000
     12 C11         -0.2900     3.5530    -1.2640 ca         1 UNL       0.000000
     13 N            3.1570     4.7820    -0.8810 nc         1 UNL       0.000000
     14 N1           1.6670     2.2980    -0.7870 na         1 UNL       0.000000
     15 N2           2.9680    -0.0140    -0.5390 na         1 UNL       0.000000
     16 N3          -0.9590     2.3150    -1.2420 na         1 UNL       0.000000
     17 N4           5.8590    -0.0300    -0.3800 nc         1 UNL       0.000000
     18 N5          -2.3020     4.8130    -1.8290 nc         1 UNL       0.000000
     19 C12          3.0440    -2.3810    -0.6770 ca         1 UNL       0.000000
     20 C13          5.1570    -3.6060    -0.5940 ca         1 UNL       0.000000
     21 C14          5.1510    -1.1710    -0.4510 ca         1 UNL       0.000000
     22 C15          3.7250    -1.2010    -0.5470 ca         1 UNL       0.000000
     23 C16          5.8380    -2.4260    -0.4670 ca         1 UNL       0.000000
     24 C17          3.7320    -3.6340    -0.7170 ca         1 UNL       0.000000
     25 N6           3.1060    -4.8110    -0.8910 nc         1 UNL       0.000000
     26 N7           1.6420    -2.3120    -0.7920 na         1 UNL       0.000000
     27 C18         -2.3140     2.3830    -1.6160 ca         1 UNL       0.000000
     28 C19         -4.3290     3.6070    -2.2570 ca         1 UNL       0.000000
     29 C20         -4.3680     1.1710    -2.1310 ca         1 UNL       0.000000
     30 C21         -2.9950     1.2010    -1.7350 ca         1 UNL       0.000000
     31 C22         -5.0100     2.4260    -2.3760 ca         1 UNL       0.000000
     32 C23         -2.9490     3.6350    -1.8840 ca         1 UNL       0.000000
     33 N8          -5.0570     0.0300    -2.3070 nc         1 UNL       0.000000
     34 N9          -2.2830     0.0150    -1.4740 na         1 UNL       0.000000
     35 C24         -5.0350    -2.3660    -2.3800 ca         1 UNL       0.000000
     36 C25         -2.9870    -3.5980    -1.8910 ca         1 UNL       0.000000
     37 C26         -3.0070    -1.1640    -1.7370 ca         1 UNL       0.000000
     38 C27          1.7740    -4.7670    -1.0680 ca         1 UNL       0.000000
     39 C28         -0.3280    -3.5450    -1.2710 ca         1 UNL       0.000000
     40 C29         -0.2900    -5.9720    -1.5620 ca         1 UNL       0.000000
     41 C30          1.0590    -5.9780    -1.3290 ca         1 UNL       0.000000
     42 C31         -1.0380    -4.7530    -1.5540 ca         1 UNL       0.000000
     43 C32          1.0220    -3.5520    -1.0390 ca         1 UNL       0.000000
     44 C33         -4.3800    -1.1190    -2.1330 ca         1 UNL       0.000000
     45 C34         -2.3390    -2.3530    -1.6210 ca         1 UNL       0.000000
     46 C35         -4.3680    -3.5550    -2.2640 ca         1 UNL       0.000000
     47 N10         -0.9840    -2.3000    -1.2460 na         1 UNL       0.000000
     48 N11         -2.3530    -4.7830    -1.8380 nc         1 UNL       0.000000
     49 H            6.9190    -2.3950    -0.3940 ha         1 UNL       0.000000
     50 H1           5.6720    -4.5600    -0.6260 ha         1 UNL       0.000000
     51 H2           6.9440     2.3250    -0.3890 ha         1 UNL       0.000000
     52 H3           5.7200     4.5030    -0.6170 ha         1 UNL       0.000000
     53 H4           1.7100     6.8820    -1.3370 ha         1 UNL       0.000000
     54 H5          -0.7630     6.8970    -1.7650 ha         1 UNL       0.000000
     55 H6          -4.8030     4.5610    -2.4590 ha         1 UNL       0.000000
     56 H7          -6.0510     2.3950    -2.6770 ha         1 UNL       0.000000
     57 H8          -6.0760    -2.3230    -2.6810 ha         1 UNL       0.000000
     58 H9          -4.8520    -4.5030    -2.4680 ha         1 UNL       0.000000
     59 H10         -0.8360    -6.8830    -1.7780 ha         1 UNL       0.000000
     60 H11          1.6370    -6.8950    -1.3500 ha         1 UNL       0.000000
     61 C36         -1.4700     0.0090    -0.2300 c3         1 UNL       0.000000
     62 C37         -0.6690    -1.4250    -0.0870 c3         1 UNL       0.000000
     63 C38          0.9630    -1.4410     0.2010 c3         1 UNL       0.000000
     64 C39          1.7820    -0.0090     0.3490 c3         1 UNL       0.000000
     65 C40          0.9780     1.4320     0.2030 c3         1 UNL       0.000000
     66 C41         -0.6530     1.4340    -0.0850 c3         1 UNL       0.000000
     67 C42         -0.5060    -1.4300     3.4180 cd         1 UNL       0.000000
     68 C43          0.6870    -0.7240     3.6390 cc         1 UNL       0.000000
     69 C44          0.6940     0.7110     3.6400 cd         1 UNL       0.000000
     70 C45         -0.4930     1.4300     3.4230 cc         1 UNL       0.000000
     71 C46         -1.2350    -1.9620     1.2580 cf         1 UNL       0.000000
     72 C47         -2.1850    -1.1200     1.8630 ce         1 UNL       0.000000
     73 C48         -0.2610    -2.2470     2.2020 cd         1 UNL       0.000000
     74 C49          1.0290    -2.0030     1.6540 cc         1 UNL       0.000000
     75 C50         -2.3400     0.0120     1.0610 ce         1 UNL       0.000000
     76 C51         -2.1710     1.1400     1.8670 cf         1 UNL       0.000000
     77 C52         -0.2370     2.2480     2.2060 cc         1 UNL       0.000000
     78 C53         -1.2130     1.9750     1.2610 cf         1 UNL       0.000000
     79 C54          1.0490     1.9890     1.6580 cc         1 UNL       0.000000
     80 C55          1.6740     1.1230     2.5450 cd         1 UNL       0.000000
     81 C56          1.6620    -1.1430     2.5420 cc         1 UNL       0.000000
     82 C57          2.1360    -0.0120     1.8690 cd         1 UNL       0.000000
     83 C58         -1.7950     0.7750     3.2690 cx         1 UNL       0.000000
     84 C59         -1.8080    -0.7640     3.2720 cx         1 UNL       0.000000
     85 H12         -4.0030     0.8300     5.4180 hn         1 UNL       0.000000
     86 H13         -4.1230    -0.5340     5.5220 hn         1 UNL       0.000000
     87 NI          -3.0860    -0.0120     4.5720 nk         1 UNL       0.000000
@<TRIPOS>BOND
     1    57    35 1   
     2    56    31 1   
     3    58    46 1   
     4    55    28 1   
     5    35    46 ar  
     6    35    44 ar  
     7    31    28 ar  
     8    31    29 ar  
     9    33    44 1   
    10    33    29 2   
    11    46    36 ar  
    12    28    32 ar  
    13    44    37 ar  
    14    29    30 ar  
    15    36    48 1   
    16    36    45 ar  
    17    32    18 2   
    18    32    27 ar  
    19    48    42 2   
    20    18     1 1   
    21    59    40 1   
    22    54    10 1   
    23    37    45 ar  
    24    37    34 1   
    25    30    27 ar  
    26    30    34 1   
    27    45    47 1   
    28    27    16 1   
    29    40    42 ar  
    30    40    41 ar  
    31    42    39 ar  
    32    10     1 ar  
    33    10     3 ar  
    34     1    12 ar  
    35    34    61 1   
    36    60    41 1   
    37    53     3 1   
    38    41    38 ar  
    39     3    11 ar  
    40    39    47 1   
    41    39    43 ar  
    42    12    16 1   
    43    12     2 ar  
    44    47    62 1   
    45    16    66 1   
    46    38    43 ar  
    47    38    25 2   
    48    11     2 ar  
    49    11    13 1   
    50    43    26 1   
    51     2    14 1   
    52    25    24 1   
    53    13     5 2   
    54    26    19 1   
    55    26    63 1   
    56    14     8 1   
    57    14    65 1   
    58    24    19 ar  
    59    24    20 ar  
    60     5     8 ar  
    61     5     9 ar  
    62    19    22 ar  
    63     8     6 ar  
    64    50    20 1   
    65    52     9 1   
    66    20    23 ar  
    67     9     4 ar  
    68    22    15 1   
    69    22    21 ar  
    70     6    15 1   
    71     6     7 ar  
    72    15    64 1   
    73    23    21 ar  
    74    23    49 1   
    75     4     7 ar  
    76     4    51 1   
    77    21    17 1   
    78     7    17 2   
    79    61    62 1   
    80    61    66 1   
    81    61    75 1   
    82    62    63 1   
    83    62    71 1   
    84    66    65 1   
    85    66    78 1   
    86    63    64 1   
    87    63    74 1   
    88    65    64 1   
    89    65    79 1   
    90    64    82 1   
    91    75    72 1   
    92    75    76 2   
    93    71    72 2   
    94    71    73 1   
    95    78    76 1   
    96    78    77 2   
    97    74    73 2   
    98    74    81 1   
    99    79    77 1   
   100    79    80 2   
   101    72    84 1   
   102    76    83 1   
   103    82    81 2   
   104    82    80 1   
   105    73    67 1   
   106    77    70 1   
   107    81    68 1   
   108    80    69 1   
   109    83    84 1   
   110    83    70 1   
   111    83    87 1   
   112    84    67 1   
   113    84    87 1   
   114    67    68 2   
   115    70    69 2   
   116    68    69 1   
   117    87    85 1   
   118    87    86 1   
@<TRIPOS>SUBSTRUCTURE
     1 UNL         1 TEMP              0 ****  ****    0 ROOT